LTspice 24.0.12 for Windows
Circuit: * Z:\home\grzegorz\git\Workbench\High Voltage Bipolar Power Supply\sim\Draft1.asc
Start Time: Wed Nov 27 21:22:39 2024
solver = Normal
Maximum thread count: 8
tnom = 27
temp = 27
method = modified trap
Direct Newton iteration for .op point succeeded.
Total elapsed time: 0.155 seconds.

