LTspice 24.0.12 for Windows
Circuit: * Z:\home\grzegorz\git\Workbench\High Voltage Bipolar Power Supply\sim\LT8365_HV_Positive.asc
Start Time: Sun Dec  1 23:11:56 2024
solver = Normal
Maximum thread count: 8
tnom = 27
temp = 27
method = modified trap
c5: Increased Cpar to 1e-13
c8: Increased Cpar to 1e-12
Direct Newton iteration for .op point succeeded.
Ignoring empty pin current: Ix(u1:4)
Ignoring empty pin current: Ix(u1:6)
Ignoring empty pin current: Ix(u1:8)
Ignoring empty pin current: Ix(u1:13)
Ignoring empty pin current: Ix(u1:15)
Ignoring empty pin current: Ix(u1:16)
Ignoring empty pin current: Ix(u1:4)
Ignoring empty pin current: Ix(u1:6)
Ignoring empty pin current: Ix(u1:8)
Ignoring empty pin current: Ix(u1:13)
Ignoring empty pin current: Ix(u1:15)
Ignoring empty pin current: Ix(u1:16)
Total elapsed time: 254.411 seconds.

